results/2026-03-03/bilevel_comparisons_single_period/solution_bus_motivation_c_efficiency.csv
bus_id,vm_avg,z_voltage
1,1.0026224025694515,1.0
2,1.00262241321432,1.0
3,1.0018698862285176,1.0
4,1.0003639347835147,1.0
5,0.0,0.0
6,1.014889156509222,1.0
7,1.001152367434084,1.0
8,1.0011523688152617,1.0
9,1.0043757652135128,1.0
10,1.004375762911887,1.0
11,1.001653734612841,1.0
12,0.0,0.0
13,1.002622403307904,1.0
14,1.0011523667733864,1.0
15,0.0,0.0
16,1.0043757652135128,1.0
17,1.0011523667733864,1.0
18,1.002622403307904,1.0
19,1.0011523688152617,1.0
20,0.0,0.0
